8500-Node/IEEE8500_Losses.Txt

LOSSES REPORT

Power Delivery Element Loss Report

Element                  kW Losses    % of Power   kvar Losses

"Line.HVMV_SUB_CONNECTOR"     0.00083,      0.0     0.0083466
"Line.LN5502549-1"            0.00021,      0.0     -0.00394861
"Line.LN6259988-1"            0.00037,      0.0     -0.013866
"Line.LN6077796-1"            0.00005,      0.0     -0.00141354
"Line.LN5835135-2"            0.02207,     0.02     0.00650371
"Line.LN5896826-1"            0.00016,      0.0     -0.0270058
"Line.LN5714038-1"            0.00081,      0.0     -0.0127217
"Line.LN5653457-1"            0.32830,     0.06     0.0767715
"Line.LN5835173-1"            0.16004,     0.02     0.135175
"Line.LN6321415-1"            0.00021,      0.0     -0.0117091
"Line.LN5565092-1"            0.00003,      0.0     -0.000469474
"Line.LN6073648-1"            0.00012,      0.0     -0.000912914
"Line.LN5774457-1"            0.10179,     0.02     0.0167093
"Line.LN5534966-3"            0.00507,     0.01     -0.000274694
"Line.LN5859996-1"            0.00006,      0.0     -0.000765245
"Line.LN6138610-2"            1.40462,     0.06     0.441348
"Line.LN6258435-3"            0.00067,      0.0     -0.0117115
"Line.LN5804790-1"            0.00071,      0.0     -0.0241108
"Line.LN6900591-14"           0.00149,     0.00     -0.00710989
"Line.LN6409873-1"            0.01341,     0.02     -0.00203667
"Line.LN6014135-1"            0.00063,      0.0     -0.000170023
"Line.LN6077784-1"            0.31766,     0.03     0.267643
"Line.LN5744338-1"            0.06677,     0.04     0.0307964
"Line.LN6991381-4"            0.00231,     0.01     -0.0085319
"Line.LN5774480-1"            0.25971,     0.12     0.125597
"Line.LN5986938-3"            0.00044,      0.0     -0.000831737
"Line.LN5894230-1"            0.00044,      0.0     -0.0161882
"Line.LN5683858-3"            0.00088,      0.0     -0.00979185
"Line.LN5920279-5"            1.00781,     0.02     2.39672
"Line.LN6439600-1"            0.00020,      0.0     -0.0133113
"Line.LN5589097-1"            0.00011,      0.0     -0.00309284
"Line.LN5651975-1"            0.28930,     0.04     0.0929423
"Line.LN5865236-1"            0.00010,      0.0     -0.00112906
"Line.LN5593232-1"            0.00033,      0.0     -0.01871
"Line.LN5740283-1"            0.00003,      0.0     -0.000887749
"Line.LN6106559-1"            0.00263,     0.01     -0.011205
"Line.LN5714056-3"            0.70802,     0.11     0.21024
"Line.LN5985355-3"            0.36534,     0.09     0.191278
"Line.LN5531956-1"            0.00013,      0.0     -0.00848527
"Line.LN5650048-1"            0.00014,      0.0     -0.00776448
"Line.LN6290203-1"            0.24308,     0.03     0.192707
"Line.LN6134414-1"            0.00055,      0.0     -0.00791435
"Line.LN6259998-2"            0.00005,      0.0     -0.00177533
"Line.LN6078767-1"            0.24515,     0.01     0.549117
"Line.LN6017300-1"            0.00011,      0.0     -0.0114069
"Line.LN8979257-2"            0.00004,      0.0     -0.0378131
"Line.LN81048109-1"           0.00199,     0.01     -0.0512028
"Line.293471"                 0.00027,      0.0     -0.0176515
"Line.LN5534965-2"            0.00002,      0.0     -0.000800434
"Line.LN5655683-1"            0.00421,     0.00     0.00161109
"Line.LN5686247-1"            0.00005,      0.0     -0.000809864
"Line.LN6048642-1"            0.00000,      0.0     -0.0136131
"Line.LN5928544-3"            0.01940,     0.02     0.00339016
"Line.LN6108172-1"            0.00157,     0.01     -0.0250769
"Line.LN5532754-1"            0.12018,     0.02     0.0369098
"Line.LN5591834-1"            0.00108,     0.00     -0.00866395
"Line.LN6347196-2"            0.06482,     0.01     0.00750293
"Line.LN5532741-1"            0.00801,     0.01     -0.00326494
"Line.LN5804803-1"            0.00020,      0.0     -0.0369937
"Line.LN6169248-1"            0.96759,     0.06     0.912371
"Line.LN5532786-2"            0.00009,      0.0     -0.00205569
"Line.LN5744339-1"            0.03800,     0.03     0.0104905
"Line.LN5531255-3"            0.02645,     0.02     0.00800297
"Line.LN5926308-2"            0.23381,     0.03     0.0645074
"Line.LN5683856-3"            0.00007,      0.0     -0.00327267
"Line.LN6171502-1"            0.00005,      0.0     -0.000871246
"Line.LN5593228-1"            0.00013,      0.0     -0.00774984
"Line.LN6380800-1"            0.00013,      0.0     -0.00739199
"Line.LN6199525-2"            0.00003,      0.0     -0.0087176
"Line.LN5772710-2"            0.01568,     0.02     -0.00258879
"Line.LN8961760-1"            0.00013,      0.0     -0.00285631
"Line.LN6047556-1"            0.00026,      0.0     -0.0153574
"Line.LN6138603-1"            0.00108,     0.01     -0.0157512
"Line.LN6108139-1"            0.00002,      0.0     -0.00226451
"Line.LN6388581-2"            0.00006,      0.0     -0.00675611
"Line.LN5774460-1"            0.00004,      0.0     -0.00741977
"Line.LN5624387-1"            0.00044,      0.0     -0.00681621
"Line.LN6137087-1"            0.00696,     0.01     -0.000780713
"Line.LN6077809-1"            0.02628,     0.03     0.0063686
"Line.LN6440079-1"            0.00079,      0.0     -0.00627032
"Line.LN5804794-1"            0.01667,     0.02     -0.000509332
"Line.LN5654484-1"            0.00010,      0.0     -0.00358859
"Line.LN5774465-1"            0.00092,     0.01     -0.0146032
"Line.LN5473349-1"            0.90285,     0.01     2.14337
"Line.LN6169253-1"            0.00016,      0.0     -0.00693989
"Line.LN6350536-1"            0.00011,      0.0     -0.0209221
"Line.LN6048523-1"            0.07526,     0.05     0.0276372
"Line.LN5594152-1"            0.07296,     0.04     0.0418491
"Line.LN5865248-1"            0.34302,     0.04     0.0950218
"Line.LN6046143-1"            0.00005,      0.0     -0.0112214
"Line.LN5803287-1"            0.00020,      0.0     -0.00269091
"Line.LN5589094-1"            0.12164,     0.05     0.0582318
"Line.LN5954983-1"            0.04246,     0.04     0.0121957
"Line.LN5924696-2"            0.00003,      0.0     -0.0056268
"Line.LN6506311-4"            0.00000,      0.0     -0.00109484
"Line.LN5653493-1"            0.01319,     0.01     0.00556213
"Line.LN5684836-1"            2.86712,     0.05     6.8115
"Line.LN5715016-3"            0.00005,      0.0     -0.00924552
"Line.LN6138614-1"            0.89473,     0.10     0.259653
"Line.LN6077781-2"            9.77619,     0.19     9.16499
"Line.LN5675121-1"            0.00003,      0.0     -0.0125864
"Line.LN5773046-1"            0.16383,     0.07     0.08111
"Line.LN6380809-2"            0.09479,     0.01     0.0363428
"Line.LN6018326-1"            0.00029,      0.0     -0.00780722
"Line.LN5472356-1"            0.00003,      0.0     -0.00783323
"Line.LN6139641-1"            2.30500,     0.03     5.48045
"Line.LN6018341-1"            0.71447,     0.03     1.59254
"Line.LN6017302-1"            0.13442,     0.05     0.0409242
"Line.LN6199505-1"            0.00002,      0.0     -0.00449019
"Line.LN5682327-1"            0.00369,     0.00     0.00130862
"Line.LN6290243-1"            0.00060,      0.0     -0.00788718
"Line.X8223_48332_SW"         0.01534,     0.00     0.0152762
"Line.LN6413567-3"            0.35929,     0.03     0.124097
"Line.LN5591731-3"            0.07614,     0.00     0.181059
"Line.LN5653470-1"            0.00028,      0.0     -0.0304012
"Line.LN6017316-1"            0.21756,     0.09     0.107721
"Line.LN5926299-1"            0.00056,      0.0     -0.00715174
"Line.LN5683831-1"            0.53401,     0.06     0.150647
"Line.LN6352700-1"            0.00008,      0.0     -0.000249105
"Line.LN6047570-1"            0.00004,      0.0     -0.00600142
"Line.LN5624342-1"            2.33545,     0.04     5.55116
"Line.LN6259992-1"            0.00013,      0.0     -0.00563911
"Line.LN5841919-1"            0.00008,      0.0     -0.0111897
"Line.LN6380811-1"            0.06536,     0.06     0.0189327
"Line.LN5683832-1"            0.00014,      0.0     -0.00946308
"Line.LN6077778-1"            0.00015,      0.0     -0.0107981
"Line.LN5561442-2"            3.22816,     0.04     7.68216
"Line.LN6259983-1"            0.00038,      0.0     -0.0200325
"Line.LN5865244-1"            0.02102,     0.02     0.00576819
"Line.LN6350555-1"            0.00005,      0.0     -0.00783491
"Line.LN5714039-1"            0.00261,     0.01     -0.00475831
"Line.LN5889821-1"            3.78471,     0.06     9.00065
"Line.LN5804791-1"            1.51079,     0.12     0.516178
"Line.LN5653486-1"            0.00262,     0.01     -0.00946157
"Line.LN5926286-1"            0.00212,     0.01     -0.00727446
"Line.LN6318859-1"            0.00000,      0.0     -0.00703818
"Line.LN5926316-1"            0.00204,     0.00     -0.000115329
"Line.LN5591703-1"            0.00067,      0.0     -0.00740531
"Line.LN5531333-1"            0.00181,     0.01     -0.00287178
"Line.LN6047581-1"            0.00004,      0.0     -0.00358451
"Line.LN6349077-1"            0.00000,      0.0     -0.00498417
"Line.LN6350574-1"            0.02312,     0.01     -0.0340405
"Line.LN6320343-1"            0.03724,     0.03     0.0112991
"Line.LN81048100-5"           0.03909,     0.02     -0.00520031
"Line.LN6348946-1"            0.00002,      0.0     -0.00107188
"Line.LN5744351-1"            0.00016,      0.0     -0.00963135
"Line.LN5472342-1"            0.00004,      0.0     -0.00728177
"Line.LN5621849-1"            0.00007,      0.0     -0.000613399
"Line.LN6379375-1"            0.00004,      0.0     -0.00675182
"Line.LN6028890-1"            0.00062,      0.0     -0.0206933
"Line.LN6380822-1"            0.90785,     0.07     0.793085
"Line.LN5835131-1"            0.25071,     0.03     0.194188
"Line.LN5803262-7"            0.00001,      0.0     -0.00185564
"Line.LN81048089-1"           0.03460,     0.03     -0.0479546
"Line.LN6201699-1"            0.00003,      0.0     -0.00091401
"Line.LN5746548-1"            0.05647,     0.01     0.0166169
"Line.LN5835174-1"            0.42092,     0.17     0.208943
"Line.LN6505947-4"            0.00135,     0.00     0.000432208
"Line.LN5683833-1"            0.31503,     0.15     0.148619
"Line.LN5561439-3"            0.12221,     0.02     0.210914
"Line.LN6109190-1"            0.00117,     0.00     -0.00348017
"Line.LN6258435-2"            0.00014,      0.0     -0.00239858
"Line.LN5804819-1"            0.00022,      0.0     -0.0233581
"Line.LN5593215-1"            0.08676,     0.04     0.0406627
"Line.LN5833717-1"            0.24443,     0.02     0.212959
"Line.LN6199557-1"            0.45964,     0.05     0.395267
"Line.LN5744332-1"            0.00008,      0.0     -0.00790244
"Line.LN5558790-1"            0.84933,     0.01     2.01806
"Line.LN6078692-1"            0.08777,     0.04     0.0414371
"Line.LN5956482-1"            0.01635,     0.00     0.00844537
"Line.LN5593225-1"            0.00017,      0.0     -0.0093816
"Line.LN6900591-26"           0.00046,      0.0     -0.000140562
"Line.LN5952393-1"            0.00234,     0.01     -0.00354713
"Line.LN6350531-1"            0.02291,     0.06     -0.037481
"Line.LN5965099-10"           0.02372,     0.01     0.0127038
"Line.LN6047568-1"            0.45050,     0.19     0.220154
"Line.LN5926292-1"            0.00013,      0.0     -0.00819765
"Line.LN6380806-1"            0.00116,     0.00     -0.00731733
"Line.LN6341781-3"            0.00017,      0.0     -0.011304
"Line.LN8979367-1"            0.00043,      0.0     -0.0636806
"Line.LN6018340-1"            0.00124,     0.01     -0.013545
"Line.LN6380847-1"            0.47327,     0.08     0.118751
"Line.LN8961797-1"            0.00142,     0.01     -0.0972064
"Line.LN6077797-1"            0.00742,     0.02     -0.0132096
"Line.LN6077773-1"            0.00533,     0.01     -0.00800436
"Line.LN5837496-4"            0.00008,      0.0     -0.00415028
"Line.LN5623392-1"            0.00413,     0.01     -0.0144231
"Line.LN5624380-1"            0.00126,     0.01     -0.0151713
"Line.LN6422809-2"            0.12493,     0.00     0.117461
"Line.LN5799561-1"            1.07184,     0.03     2.41418
"Line.LN6229818-1"            0.00006,      0.0     -0.0103206
"Line.LN5593230-1"            0.18203,     0.07     0.0929958
"Line.LN5563901-3"            2.03187,     0.03     4.83276
"Line.LN6320339-1"            0.00720,     0.02     -0.0188651
"Line.LN5986927-1"            0.00004,      0.0     -0.00194667
"Line.LN6047567-1"            0.00018,      0.0     -0.00638527
"Line.LN5714047-1"            0.04110,     0.03     0.0136017
"Line.LN5563934-1"            0.00889,     0.02     -0.00805604
"Line.LN6169249-3"            0.00002,      0.0     -0.000569726
"Line.LN6230800-1"            0.00012,      0.0     -0.00467874
"Line.LN5985339-2"            0.00055,      0.0     -0.00972911
"Line.LN5898059-3"            0.00013,      0.0     -0.00294624
"Line.LN5956457-2"            0.07833,     0.01     0.059687
"Line.LN5865229-1"            0.01961,     0.02     0.00400835
"Line.LN6018331-1"            0.61966,     0.02     1.39399
"Line.LN6199535-1"            0.00025,      0.0     -0.00924624
"Line.LN5502538-1"            0.73124,     0.10     0.229819
"Line.LN5742816-2"            0.01466,     0.02     -0.0021884
"Line.LN6229803-3"            0.00005,      0.0     -0.00300331
"Line.LN5986930-1"            0.05717,     0.06     0.00790367
"Line.LN6350532-1"            0.00011,      0.0     -0.00502701
"Line.LN5588016-3"            0.00715,     0.01     0.00249669
"Line.LN5623409-1"            0.00103,     0.00     -0.00910378
"Line.LN6350560-1"            0.01875,     0.02     0.00423683
"Line.LN5472347-1"            0.00141,     0.00     -0.00618169
"Line.LN6290199-1"            6.29400,     0.11     14.9436
"Line.LN6409775-3"            0.00228,     0.00     -0.00104048
"Line.LN5591811-1"            0.02885,     0.04     -0.00408431
"Line.LN6229808-1"            0.00013,      0.0     -0.00870512
"Line.LN5651985-3"            0.00036,      0.0     -0.00525066
"Line.LN6047577-1"            3.53372,     0.16     1.11047
"Line.LN5528574-2"            0.00002,      0.0     -0.000599351
"Line.LN5896827-1"            0.00015,      0.0     -0.00848577
"Line.LN5774451-1"            0.01623,     0.02     0.000685312
"Line.LN5504876-1"            0.00994,     0.01     -0.0349367
"Line.LN5860423-4"            1.30762,     0.03     1.22479
"Line.LN6138613-1"            0.00007,      0.0     -0.00497237
"Line.LN6077771-1"            0.03299,     0.02     0.0124897
"Line.LN6138636-1"            0.00052,      0.0     -0.0151733
"Line.LN6199512-1"            0.00128,     0.01     -0.0166204
"Line.LN6047564-1"            0.00058,      0.0     -0.00823476
"Line.LN6258460-3"            0.00052,      0.0     -0.0291178
"Line.LN5683810-1"            0.12574,     0.02     0.0981873
"Line.LN5852082-1"            0.00084,      0.0     -0.000451625
"Line.LN6380816-1"            0.00006,      0.0     -0.00859307
"Line.LN6108138-2"            0.00025,      0.0     -0.00124589
"Line.LN6167732-2"            0.00004,      0.0     -0.00181943
"Line.LN6229831-1"            0.07670,     0.03     0.0383427
"Line.LN6504020-2"           30.19609,     0.27     71.3262
"Line.LN81354561-2"           0.00002,      0.0     -0.00204921
"Line.LN5654476-1"            0.00057,      0.0     -0.0106447
"Line.LN6987572-4"            0.02079,     0.01     0.0118167
"Line.LN6260025-1"            0.00016,      0.0     -0.00866566
"Line.LN5926291-1"            0.22759,     0.03     0.17775
"Line.LN8961800-1"            0.01062,     0.02     -0.0907986
"Line.LN6437757-1"            0.00008,      0.0     -0.00233868
"Line.LN5594245-1"            0.00003,      0.0     -0.00872352
"Line.LN5957492-1"            0.00001,      0.0     -0.000290373
"Line.LN5956464-1"            0.03056,     0.00     0.0117199
"Line.LN6171683-1"            0.00009,      0.0     -0.00124343
"Line.LN5625715-1"            0.00002,      0.0     -0.000302613
"Line.LN5746706-2"            0.00135,     0.00     -0.00327645
"Line.LN5653491-1"            0.00030,      0.0     -0.00800226
"Line.LN5472361-1"            0.00004,      0.0     -0.0112043
"Line.LN5683856-2"            0.00002,      0.0     -0.00104167
"Line.LN5565091-1"            0.00003,      0.0     -0.00127864
"Line.LN5653466-1"            0.00079,      0.0     -0.0151298
"Line.LN5534966-2"            0.00277,     0.00     -0.000150012
"Line.LN6409762-1"            0.00008,      0.0     -0.00795469
"Line.LN6109158-1"            3.96102,     0.18     1.23799
"Line.LN5835145-1"            0.00086,      0.0     -0.019574
"Line.LN5774493-1"            0.00404,     0.01     -0.00961116
"Line.LN5835143-1"            5.01963,     0.28     1.52426
"Line.LN5926315-1"            0.00001,      0.0     -0.00136469
"Line.LN5895786-1"            0.00004,      0.0     -0.00750208
"Line.LN81048102-5"           0.00179,     0.00     -0.00153189
"Line.LN5861084-1"            0.00036,      0.0     -0.000922385
"Line.LN5774455-2"            0.00012,      0.0     -0.00203369
"Line.LN6108132-1"            0.00004,      0.0     -0.010079
"Line.LN6077775-1"            0.00116,     0.01     -0.0169888
"Line.LN5591718-1"            0.00012,      0.0     -0.0127403
"Line.LN5653461-1"            0.00013,      0.0     -0.0086593
"Line.LN6290229-1"            0.00099,     0.00     -0.00259752
"Line.LN5774463-1"            0.00004,      0.0     -0.0100587
"Line.LN6380814-1"            0.00007,      0.0     -0.00736281
"Line.LN5895776-1"            0.00063,      0.0     -0.00722792
"Line.LN6200439-1"            0.00221,     0.00     -0.00305235
"Line.LN6138601-1"            0.00009,      0.0     -0.00164178
"Line.LN5927421-1"            0.00011,      0.0     -0.00644615
"Line.LN5532748-5"            0.46536,     0.03     0.425842
"Line.LN6506318-4"            0.00002,      0.0     -0.000421001
"Line.LN6288856-3"            0.09082,     0.05     0.042045
"Line.LN5653452-1"            3.79885,     0.06     9.0193
"Line.LN6290205-1"            0.33584,     0.03     0.304534
"Line.LN6350547-1"            0.00015,      0.0     -0.00855009
"Line.LN6229800-1"            0.03122,     0.02     0.0110307
"Line.LN6138609-1"            0.12922,     0.05     0.0623628
"Line.LN81048090-1"           0.00000,      0.0     -0.0650196
"Line.LN5683828-1"            0.18511,     0.08     0.0907976
"Line.LN8979256-1"            0.00017,      0.0     -0.145687
"Line.LN6506317-2"            0.00018,      0.0     -0.028145
"Line.LN6078744-1"            0.00028,      0.0     -0.00454117
"Line.LN81018875-1"           0.00003,      0.0     -0.00382824
"Line.LN6078691-1"            0.15357,     0.09     0.0612212
"Line.LN6258439-1"            0.39345,     0.07     0.177552
"Line.LN6108164-1"            0.22274,     0.06     0.116232
"Line.LN5927379-2"            0.00025,      0.0     -0.00932207
"Line.LN6110365-1"            0.00072,      0.0     -0.0122523
"Line.LN5773040-1"            0.34321,     0.06     0.146243
"Line.V7173_48332_SW"         0.21580,     0.00     0.215731
"Line.LN5534969-2"            0.78902,     0.01     1.87601
"Line.LN6015891-1"            0.00000,      0.0     -0.0140862
"Line.LN5683816-1"            0.66885,     0.10     0.269402
"Line.LN6199561-1"            0.00046,      0.0     -0.00736545
"Line.LN6900591-12"           0.00290,     0.01     -0.00573735
"Line.LN6411363-1"            0.00044,      0.0     -0.0127455
"Line.LN6108130-6"            0.00025,      0.0     -0.0239716
"Line.LN5837516-1"            0.00010,      0.0     -0.00262173
"Line.LN6017301-4"            0.00007,      0.0     -0.00282288
"Line.LN5981121-1"            0.00007,      0.0     -0.0146144
"Line.LN81048107-4"           0.00086,      0.0     -0.0220745
"Line.LN5472374-1"            0.04970,     0.03     0.0205312
"Line.LN5746550-2"            0.00001,      0.0     -0.0012329
"Line.LN5561437-1"            0.07044,     0.03     -0.0383264
"Line.LN6439986-3"            0.00010,      0.0     -0.00382987
"Line.LN5744324-1"            0.01353,     0.03     -0.0147428
"Line.LN6376708-1"            0.00021,      0.0     -0.00108155
"Line.LN5895816-2"            0.00091,     0.00     -0.00852893
"Line.LN5593235-1"            0.00027,      0.0     -0.00987098
"Line.LN81354563-2"           0.00128,     0.00     -0.00469906
"Line.LN5866260-1"            0.00011,      0.0     -0.00582309
"Line.LN6018243-1"            0.00882,     0.02     -0.00653868
"Line.LN5928743-3"            0.00082,      0.0     -0.0150209
"Line.LN5957501-1"            0.00005,      0.0     -0.00506399
"Line.LN6379357-1"            0.00208,     0.01     -0.0022164
"Line.LN6291252-2"            0.31714,     0.01     0.706956
"Line.LN6440002-3"            0.00755,     0.01     0.00244662
"Line.LN6076346-1"            0.88397,     0.16     0.394891
"Line.LN8978752-1"            0.00179,     0.00     -0.0170193
"Line.LN5621834-1"            0.00608,     0.02     -0.0128104
"Line.LN6108123-1"            0.00008,      0.0     -0.00807635
"Line.LN6505952-4"            0.00001,      0.0     -0.000348723
"Line.LN5835159-1"            0.00004,      0.0     -0.00651853
"Line.LN5698090-2"            0.00011,      0.0     -0.000528947
"Line.LN5714050-1"            0.00036,      0.0     -0.00900217
"Line.LN5502529-1"            0.00002,      0.0     -0.000388706
"Line.LN5594236-1"            0.60359,     0.02     1.35949
"Line.LN5593248-1"            0.00011,      0.0     -0.0165338
"Line.LN5865272-1"            0.30095,     0.06     0.0812091
"Line.LN5924696-3"            0.00003,      0.0     -0.00654604
"Line.LN5589096-1"            0.00002,      0.0     -0.00124205
"Line.LN6017295-1"            0.41230,     0.13     0.215743
"Line.LN5970852-1"            0.02460,     0.01     0.0161675
"Line.LN5683820-1"            0.00008,      0.0     -0.00302081
"Line.LN6286966-3"            0.00003,      0.0     -0.00285213
"Line.LN6167715-1"            0.00001,      0.0     -0.00121804
"Line.LN6108140-2"            0.00004,      0.0     -0.00169031
"Line.LN6228279-1"            0.00027,      0.0     -0.00258024
"Line.LN5803264-2"            0.00003,      0.0     -0.00122141
"Line.LN6132680-1"            0.92796,     0.15     0.393806
"Line.LN5531195-1"            0.19066,     0.01     0.420967
"Line.LN5985361-1"            0.69384,     0.12     0.178277
"Line.LN6102293-1"            0.00400,     0.01     -0.0165741
"Line.LN8989758-1"            0.00010,      0.0     -0.0206779
"Line.LN6229790-1"            0.00147,     0.01     -0.00752354
"Line.LN5956469-1"            0.00049,      0.0     -0.00678945
"Line.LN5803270-3"            0.00023,      0.0     -0.00334078
"Line.LN81048102-6"           0.00183,     0.00     -0.00156244
"Line.LN6440070-1"            0.00000,      0.0     -0.031034
"Line.LN6048626-1"            3.26184,     0.04     7.75467
"Line.LN6076248-1"            0.10893,     0.03     0.0821179
"Line.LN6137083-1"            0.00000,      0.0     -0.00571045
"Line.LN6286261-1"            0.00061,      0.0     -0.00905698
"Line.LN5653477-1"            0.00064,      0.0     -0.0104934
"Line.LN6078810-1"            0.00032,      0.0     -0.0062304
"Line.LN6199526-1"            0.00004,      0.0     -0.00762774
"Line.LN6108125-2"            1.98556,     0.03     4.72121
"Line.LN6108149-1"            0.00054,      0.0     -0.0127696
"Line.LN6230759-1"            0.00015,      0.0     -0.0176482
"Line.LN8979249-1"            0.00005,      0.0     -0.0113515
"Line.LN5865237-1"            0.00009,      0.0     -0.00948087
"Line.LN5706733-2"            0.00007,      0.0     -0.000630766
"Line.LN5745348-1"            0.66625,     0.02     1.49625
"Line.LN5898059-2"            0.00038,      0.0     -0.00858243
"Line.LN5744367-1"            0.14337,     0.09     0.0625494
"Line.LN5773136-1"            0.00006,      0.0     -0.0151806
"Line.LN5472403-2"            0.00693,     0.00     -0.00286958
"Line.LN5712496-1"            0.00014,      0.0     -0.00311369
"Line.LN5772710-1"            0.02373,     0.03     -0.000334094
"Line.LN6139544-1"            0.25934,     0.12     0.173053
"Line.LN6015788-2"            0.02381,     0.03     0.00233448
"Line.LN5591702-1"            0.11975,     0.07     0.0497985
"Line.LN5986923-1"            0.03543,     0.04     0.00208648
"Line.LN6301772-2"            0.00249,     0.00     -0.00104068
"Line.LN6001653-2"            0.27343,     0.05     0.0626459
"Line.LN6017283-1"            0.00194,     0.01     -0.00855343
"Line.LN5686079-1"            0.48017,     0.04     0.405555
"Line.LN5527264-7"            0.89013,     0.02     2.11651
"Line.LN5683813-1"            0.00001,      0.0     -0.00278421
"Line.LN5986935-1"            0.61467,     0.08     0.167758
"Line.LN5956457-3"            0.11804,     0.02     0.0899527
"Line.LN5654471-1"            0.70479,     0.02     1.58422
"Line.LN6409800-1"            0.00008,      0.0     -0.00489425
"Line.LN6411365-1"            0.00038,      0.0     -0.026635
"Line.LN6320328-1"            0.07467,     0.07     0.0200722
"Line.LN5712477-3"            0.03936,     0.04     0.00837536
"Line.LN5621857-3"            0.00006,      0.0     -0.0134664
"Line.LN6440071-1"            0.09444,     0.08     0.0292158
"Line.LN5472355-1"            0.00065,      0.0     -0.0107881
"Line.LN6351523-3"            0.04824,     0.01     0.0257245
"Line.LN6047595-2"            0.00152,     0.00     -0.0836359
"Line.LN5800724-1"            0.00004,      0.0     -0.00105453
"Line.LN6422809-3"            0.28889,     0.01     0.271606
"Line.LN5532744-1"            0.00001,      0.0     -0.00244804
"Line.LN5594242-1"            7.50631,     0.07     17.7293
"Line.LN8979343-3"            0.00034,      0.0     -0.00415812
"Line.LN5835137-1"            0.00025,      0.0     -0.0113289
"Line.LN6170199-2"            0.00002,      0.0     -0.0024915
"Line.LN5683821-1"            0.00079,      0.0     -0.0111011
"Line.LN81048110-2"           0.00064,      0.0     -0.0406837
"Line.LN6506306-2"            0.00113,     0.00     -0.0138144
"Line.LN5593219-1"            0.00176,     0.01     -0.00900091
"Line.LN81048087-1"           0.00458,     0.00     -0.000610903
"Line.LN6268990-4"            0.00237,     0.00     0.000163555
"Line.LN8968082-2"            0.00231,     0.01     -0.0665093
"Line.LN5744344-1"            0.01831,     0.02     0.00444259
"Line.LN5593220-2"            0.00030,      0.0     -0.00726554
"Line.V9287_48332_SW"         0.00046,      0.0     0.00043471
"Line.LN6019477-1"            0.00701,     0.00     0.00271591
"Line.LN5593227-1"            0.00008,      0.0     -0.00111664
"Line.LN6409869-1"            0.00000,      0.0     -0.00587439
"Line.LN6321419-2"            0.00508,     0.01     -0.0131107
"Line.LN6348954-1"            0.00018,      0.0     -0.0100958
"Line.LN6201695-2"            0.00002,      0.0     -0.00116418
"Line.LN6048635-1"            0.00436,     0.01     -0.0112432
"Line.LN6199519-1"            0.15179,     0.07     0.0727725
"Line.LN6505938-4"            0.00002,      0.0     -0.000300062
"Line.LN5472375-1"            0.03867,     0.01     0.0115276
"Line.LN5835124-1"            0.00044,      0.0     -0.00646025
"Line.LN6103927-1"            0.00005,      0.0     -0.000786364
"Line.LN6138622-1"            0.00023,      0.0     -0.00372654
"Line.LN5776673-1"            0.00030,      0.0     -0.000433624
"Line.LN6074369-1"            0.00018,      0.0     -0.00242967
"Line.LN5621826-1"            0.00008,      0.0     -0.00380231
"Line.LN6506312-2"            0.01181,     0.02     -0.00446301
"Line.LN6046046-1"            0.00013,      0.0     -0.00760687
"Line.LN6138589-1"            0.00002,      0.0     -0.00477023
"Line.LN6258445-1"            0.00002,      0.0     -0.000858532
"Line.LN5653480-1"            4.43905,     0.09     4.17921
"Line.LN5717630-1"            0.02152,     0.02     0.00840433
"Line.LN5956463-1"            1.87071,     0.15     0.647282
"Line.LN5744328-1"            0.00214,     0.00     -0.00120356
"Line.LN8979254-1"            0.00007,      0.0     -0.014212
"Line.LN5620694-1"            0.00037,      0.0     -0.00672495
"Line.LN6048634-1"            5.33583,     0.05     12.6036
"Line.LN5895779-1"            0.00005,      0.0     -0.0058656
"Line.LN5951197-2"            0.00014,      0.0     -0.0217253
"Line.LN5563942-3"            4.58331,     0.04     10.8201
"Line.LN5835123-1"            0.00111,     0.01     -0.0175615
"Line.LN5956483-1"            0.00087,      0.0     -0.00810216
"Line.LN6291153-1"            0.00037,      0.0     -0.00832082
"Line.LN5683841-1"            0.00073,      0.0     -0.010409
"Line.LN5804802-1"            1.45755,     0.13     0.516216
"Line.LN6167753-1"            0.00004,      0.0     -0.00941127
"Line.LN6047569-1"            0.00011,      0.0     -0.0117046
"Line.LN6229809-1"            0.70817,     0.10     0.208463
"Line.LN5804781-1"            0.01724,     0.02     0.000226833
"Line.LN6352701-1"            0.00000,      0.0     -0.00139317
"Line.LN5955074-2"            0.01597,     0.02     -0.00242989
"Line.LN6229805-1"            0.00150,     0.01     -0.0108692
"Line.LN6411376-1"            0.00126,     0.00     0.000170113
"Line.LN5654485-1"            0.00006,      0.0     -0.0145645
"Line.LN5746550-3"            0.00005,      0.0     -0.00815945
"Line.LN6232159-1"            0.00000,      0.0     -0.00053052
"Line.LN6412346-1"            0.00030,      0.0     -0.0177816
"Line.LN6350548-1"            0.00133,     0.01     -0.00722409
"Line.LN6106658-1"            0.02639,     0.02     0.0112345
"Line.LN6047554-1"            0.00011,      0.0     -0.0034656
"Line.LN5956458-1"            0.00015,      0.0     -0.00970054
"Line.LN5752776-2"            0.06209,     0.01     0.0221021
"Line.LN5651988-1"            0.00022,      0.0     -0.00579575
"Line.LN5562935-1"            0.00038,      0.0     -0.0122004
"Line.LN5502521-1"            0.00144,     0.01     -0.00602978
"Line.LN6409797-3"            0.05357,     0.04     0.0189916
"Line.LN5926332-1"            0.00040,      0.0     -0.00799619
"Line.LN5742811-4"            0.03221,     0.00     0.027631
"Line.LN6505943-3"            0.00010,      0.0     -0.000173169
"Line.LN6228278-1"            0.00464,     0.00     0.00150632
"Line.LN5896844-1"            0.00002,      0.0     -0.00331365
"Line.LN5805761-1"            5.90893,     0.06     13.9493
"Line.LN5867683-2"            0.97035,     0.13     0.380352
"Line.LN5956467-1"            0.09305,     0.06     0.0351434
"Line.LN5683804-1"            0.00698,     0.01     -0.00759894
"Line.LN6505940-2"            0.04159,     0.03     0.0147382
"Line.LN6139649-1"            0.00041,      0.0     -0.00307349
"Line.LN5982822-1"            0.00018,      0.0     -0.00492366
"Line.LN81354564-11"          0.00820,     0.01     -0.0301254
"Line.LN5807087-1"            0.00027,      0.0     -0.000661112
"Line.LN5517002-3"            0.05360,     0.02     0.028249
"Line.A8735_48332_SW"         0.83466,     0.01     0.83459
"Line.LN5710794-3"            2.55413,     0.02     6.01971
"Line.LN6388581-1"            0.00042,      0.0     -0.00382337
"Line.LN5499793-1"            0.00034,      0.0     -0.0159748
"Line.LN5653472-1"            0.00164,     0.00     -0.00447886
"Line.LN6288693-1"            0.00008,      0.0     -0.000832866
"Line.LN6199518-1"            0.13446,     0.03     0.00153563
"Line.LN5738651-1"            0.00029,      0.0     -0.0109284
"Line.LN5804836-1"            0.25835,     0.05     0.0696783
"Line.LN5926320-1"            0.00009,      0.0     -0.0139401
"Line.LN6121686-1"            0.00035,      0.0     -0.0117686
"Line.LN5532790-1"            0.00243,     0.01     -0.00877112
"Line.LN6258470-1"            0.00004,      0.0     -0.0105151
"Line.LN6411407-1"            0.01677,     0.01     -0.0264471
"Line.LN5636753-1"            0.00252,     0.01     -0.00290544
"Line.LN6321412-1"            0.00025,      0.0     -0.00129744
"Line.LN5833652-1"            0.02925,     0.03     0.00709155
"Line.LN5803262-1"            0.00008,      0.0     -0.00299711
"Line.LN6438273-3"            0.00869,     0.01     -0.0325358
"Line.LN6229827-1"            0.00011,      0.0     -0.00153648
"Line.LN5651995-1"            0.00055,      0.0     -0.0084087
"Line.LN5804793-1"            0.01876,     0.02     0.00329154
"Line.LN5894220-2"            0.00037,      0.0     -0.00587862
"Line.LN6413711-1"            0.00015,      0.0     -0.0066406
"Line.LN5837361-8"            0.00000,      0.0     -0.00074346
"Line.LN6506316-3"            0.00338,     0.02     -0.0569745
"Line.LN5652982-1"            0.00459,     0.02     -0.0191497
"Line.LN5624288-1"            2.33991,     0.03     5.58398
"Line.LN6048641-1"            0.00110,     0.00     -0.00484056
"Line.LN5686078-3"            0.00010,      0.0     -0.00158036
"Line.LN8939784-1"            0.00078,      0.0     -0.0209912
"Line.LN5989326-1"            0.00000,      0.0     -0.000787135
"Line.LN5898057-1"            0.00006,      0.0     -0.00105217
"Line.L5437_48332_SW"         0.28671,     0.00     0.286651
"Line.LN5535139-1"            0.15498,     0.00     0.368664
"Line.LN5653463-1"            0.00007,      0.0     -0.0115951
"Line.LN6137084-3"            0.00000,      0.0     -0.00271067
"Line.LN5472343-1"            0.00774,     0.01     -0.00157518
"Line.LN5712477-2"            0.00244,     0.00     0.000519867
"Line.LN5501004-1"            0.03389,     0.02     -0.0185674
"Line.LN5744357-1"            0.00573,     0.01     -0.0124011
"Line.LN6350544-3"            0.71813,     0.04     0.653477
"Line.LN6900590-2"            0.00119,     0.00     0.000362274
"Line.LN6201696-2"            0.00012,      0.0     -0.00206443
"Line.LN5926324-1"            0.04778,     0.04     0.0176325
"Line.LN5532749-2"            0.00002,      0.0     -0.000715377
"Line.LN8940663-1"            0.00070,      0.0     -0.171782
"Line.LN5773980-1"            0.00004,      0.0     -0.00791697
"Line.LN6350545-1"            0.00010,      0.0     -0.0115351
"Line.LN5653454-1"            0.00010,      0.0     -0.0130488
"Line.LN5623401-1"            0.00046,      0.0     -0.00509157
"Line.LN5863718-1"            0.00000,      0.0     -0.000846452
"Line.LN5712584-2"            0.00516,     0.01     -0.000734752
"Line.LN5924702-1"            0.00001,      0.0     -0.00880304
"Line.LN6047596-1"            0.00302,     0.01     -0.00639016
"Line.LN5744370-3"            0.00008,      0.0     -0.00465621
"Line.LN5861005-3"            0.86598,     0.01     2.05764
"Line.LN5776665-1"            0.00742,     0.00     0.00356788
"Line.LN5928546-1"            0.00007,      0.0     -0.000710094
"Line.LN6229797-1"            0.00034,      0.0     -0.00797202
"Line.LN5714915-1"            0.00014,      0.0     -0.0081393
"Line.LN6411385-1"            0.00023,      0.0     -0.0135773
"Line.LN5623406-1"            0.00118,     0.01     -0.0106691
"Line.LN5683822-1"            0.00022,      0.0     -0.00786406
"Line.LN6327237-2"            0.00248,     0.01     -0.00451512
"Line.LN6077785-1"            0.00017,      0.0     -0.0109383
"Line.LN5803262-8"            0.00002,      0.0     -0.00569841
"Line.LN5714080-1"            0.32653,     0.04     0.0871964
"Line.LN5526906-2"            0.00941,     0.00     0.00796337
"Line.LN6108145-1"            0.00934,     0.01     -0.0300996
"Line.LN5591710-3"            1.77428,     0.03     4.21904
"Line.LN6078776-1"            0.00000,      0.0     -0.0684811
"Line.LN5576174-4"            1.98387,     0.03     4.71907
"Line.LN5926301-1"            0.03249,     0.01     0.00472792
"Line.LN6078768-1"            0.32479,     0.01     0.72469
"Line.LN6047578-1"            0.47357,     0.06     0.150932
"Line.LN8961800-3"            0.00007,      0.0     -0.00446846
"Line.LN5562927-1"            0.11332,     0.05     0.0540755
"Line.LN81048107-1"           0.01524,     0.02     -0.0316642
"Line.LN6320368-1"            0.24190,     0.05     0.0670312
"Line.LN5803293-1"            0.00871,     0.02     -0.010953
"Line.LN6138604-1"            0.22570,     0.04     0.0552975
"Line.LN8961799-1"            0.00076,      0.0     -0.0167481
"Line.LN5957460-1"            0.00056,      0.0     -0.00748053
"Line.LN6169261-1"            0.63221,     0.05     0.537965
"Line.LN5836089-1"            0.03736,     0.05     0.00171543
"Line.LN5773028-1"            0.00086,      0.0     -0.00569603
"Line.LN6138612-1"            0.00090,     0.01     -0.0510808
"Line.LN6017304-1"            0.00000,      0.0     -0.000209197
"Line.LN6440004-2"            0.00002,      0.0     -0.00101061
"Line.LN5866308-1"            4.80265,     0.04     11.3503
"Line.LN5562919-1"            0.05680,     0.04     0.0211627
"Line.LN6061814-1"            0.00013,      0.0     -0.00836689
"Line.LN6291152-1"            0.00691,     0.01     -0.00371053
"Line.LN5621864-1"            0.00049,      0.0     -0.00257454
"Line.LN5712475-1"            0.00002,      0.0     -0.000535786
"Line.LN5500984-1"            0.00266,     0.00     0.000697241
"Line.LN5472367-1"            0.00026,      0.0     -0.00942836
"Line.LN5926309-3"            0.00329,     0.01     -0.0132068
"Line.LN5625547-1"            0.00127,     0.00     -0.000193722
"Line.LN6407748-2"            0.03359,     0.02     0.0203085
"Line.LN6199513-1"            0.00021,      0.0     -0.00539738
"Line.LN6229795-3"            0.00012,      0.0     -0.00116791
"Line.LN5895802-1"            0.00006,      0.0     -0.00335578
"Line.LN5926293-1"            0.00010,      0.0     -0.00982282
"Line.LN5916435-1"            0.00000,      0.0     -0.0108334
"Line.LN6344714-1"            0.00006,      0.0     -0.000235972
"Line.LN6077815-4"            0.51103,     0.09     0.229489
"Line.LN6259993-1"            0.04081,     0.04     0.0101572
"Line.LN5744358-1"            0.00026,      0.0     -0.00917908
"Line.LN5708136-1"            0.00019,      0.0     -0.000173919
"Line.LN6350542-1"            8.58777,     0.17     8.04515
"Line.LN6351517-1"            0.00184,     0.01     -0.00699223
"Line.LN5531255-2"            0.00389,     0.00     0.00117547
"Line.LN6298585-1"            1.28914,     0.15     0.462609
"Line.LN5774474-1"            0.00005,      0.0     -0.00835094
"Line.LN5683827-3"            0.00006,      0.0     -0.00336763
"Line.LN5835129-1"            0.02392,     0.03     -0.000484556
"Line.LN6506308-1"            0.00021,      0.0     -0.00840576
"Line.LN5532751-1"            0.04277,     0.02     0.0202898
"Line.LN6350528-1"            0.00145,     0.01     -0.00749586
"Line.LN5865228-1"            0.00281,     0.01     -0.00755397
"Line.LN5803270-2"            0.00011,      0.0     -0.00153459
"Line.LN5472360-1"            1.97068,     0.11     0.606867
"Line.LN81354564-9"           0.00018,      0.0     -0.00523121
"Line.LN6900591-20"           0.00050,      0.0     -0.00785553
"Line.LN6439975-1"            0.00469,     0.00     0.00181601
"Line.LN6259981-2"            0.00009,      0.0     -0.00951405
"Line.LN6350539-1"            0.01117,     0.02     -0.0056066
"Line.LN5926300-1"            0.00193,     0.01     -0.00774405
"Line.LN6261021-1"           15.77661,     0.14     37.2665
"Line.LN6141147-1"            0.39683,     0.10     0.21163
"Line.LN6411390-1"            0.00018,      0.0     -0.00809229
"Line.LN6351519-1"           13.60161,     0.12     32.1286
"Line.LN8945012-1"            0.00003,      0.0     -0.00253895
"Line.LN5928544-2"            0.01062,     0.01     0.00185517
"Line.LN6379450-3"            0.00000,      0.0     -0.0150836
"Line.LN5503576-1"            0.53036,     0.02     1.18797
"Line.LN6320353-1"            0.00003,      0.0     -0.00513926
"Line.LN6198013-2"            0.11671,     0.04     0.036449
"Line.LN6138597-1"            0.00906,     0.01     -0.00340749
"Line.LN5835132-1"            0.00018,      0.0     -0.00962851
"Line.LN5739188-1"            0.49739,     0.04     0.445702
"Line.LN5776667-1"            0.00177,     0.00     0.000375884
"Line.LN6326286-2"            0.00006,      0.0     -0.0129868
"Line.LN6229789-1"            0.00025,      0.0     -0.0115811
"Line.LN6170291-1"            0.00488,     0.01     -0.00570276
"Line.LN6350538-1"            0.23325,     0.05     0.0310744
"Line.LN5714052-2"            0.00010,      0.0     -0.00212953
"Line.LN5956487-1"            0.21280,     0.03     0.16421
"Line.LN5472384-2"            0.00001,      0.0     -0.00273557
"Line.LN6047575-2"            0.00002,      0.0     -0.00081216
"Line.LN5744343-3"            0.00003,      0.0     -0.0016983
"Line.LN6049824-1"            0.00004,      0.0     -0.00110449
"Line.LN6320329-1"            1.20989,     0.10     0.418431
"Line.LN5955074-3"            0.00171,     0.00     -0.000259911
"Line.LN5863823-1"            0.91974,     0.07     0.302726
"Line.LN5562931-3"            0.00004,      0.0     -0.000981242
"Line.LN6380835-1"            0.00002,      0.0     -0.00612529
"Line.LN6991380-4"            0.00027,      0.0     -0.0084561
"Line.LN6320325-1"            0.00077,      0.0     -0.0110533
"Line.LN5501000-1"            0.00010,      0.0     -0.00698526
"Line.LN6320364-1"            0.00007,      0.0     -0.0118354
"Line.LN5865232-1"            0.12607,     0.08     0.0536271
"Line.LN6292465-2"            0.04222,     0.02     0.0201318
"Line.LN8979251-1"            0.00007,      0.0     -0.0145508
"Line.LN6351512-1"            0.00001,      0.0     -0.00113326
"Line.LN5644788-1"            0.00003,      0.0     -0.00891949
"Line.LN6207101-1"            0.00030,      0.0     -0.00829391
"Line.LN5831676-1"            0.00013,      0.0     -0.00737604
"Line.LN5502533-1"            5.50865,     0.28     1.71684
"Line.LN6256144-3"            3.94881,     0.19     1.2356
"Line.LN5744359-1"            0.00119,     0.01     -0.0191141
"Line.LN5804785-1"            0.00372,     0.01     -0.0302549
"Line.LN8979346-4"            0.00006,      0.0     -0.00205565
"Line.LN81048100-3"           0.02862,     0.02     -0.0275594
"Line.LN5986938-2"            0.00059,      0.0     -0.00111933
"Line.LN81018876-1"           0.00477,     0.00     -0.00100068
"Line.LN5653459-1"            0.00020,      0.0     -0.0117299
"Line.LN6290239-1"            0.00022,      0.0     -0.0120076
"Line.LN5593222-1"            2.17455,     0.18     0.743939
"Line.LN5561432-2"            0.08442,     0.09     0.0169443
"Line.LN5896825-1"            0.48561,     0.02     1.09199
"Line.LN6413565-1"            0.00578,     0.00     0.00176205
"Line.LN5712587-2"            0.08639,     0.05     0.0367741
"Line.LN6326286-1"            0.00026,      0.0     -0.0142941
"Line.LN5472406-1"            0.00006,      0.0     -0.00829486
"Line.LN8945010-1"            0.00013,      0.0     -0.00362092
"Line.LN5865245-1"            0.00091,     0.01     -0.0180587
"Line.LN5501089-1"            0.00005,      0.0     -0.0130393
"Line.LN5712587-3"            0.02917,     0.02     0.0124144
"Line.LN5503544-1"            1.13597,     0.02     2.7019
"Line.LN5534969-3"            0.49790,     0.01     1.18382
"Line.LN8979248-1"            0.00004,      0.0     -0.00859827
"Line.LN5594151-1"            0.00007,      0.0     -0.00358976
"Line.LN5836178-1"            4.07706,     0.05     9.69305
"Line.LN6140777-1"            0.00572,     0.00     0.00200617
"Line.LN6108135-1"            0.00010,      0.0     -0.0110639
"Line.LN6381764-1"            0.01279,     0.02     -0.000477229
"Line.LN6348948-1"           10.39905,     0.14     24.7405
"Line.LN5502525-1"            0.00012,      0.0     -0.008827
"Line.LN5651977-3"            0.00061,      0.0     -0.0023353
"Line.LN8961800-2"            0.00458,     0.01     -0.0761843
"Line.LN5956502-1"            0.00000,      0.0     -0.00451249
"Line.LN5958706-1"            0.00027,      0.0     -0.00368535
"Line.LN5623399-1"            0.00025,      0.0     -0.00889625
"Line.LN5623396-1"            0.02170,     0.03     0.000318343
"Line.LN5532734-1"            0.01037,     0.02     -0.00365386
"Line.LN5651961-1"            0.00023,      0.0     -0.0104754
"Line.LN6137015-1"            0.02124,     0.02     0.00556385
"Line.LN6019478-1"            0.00049,      0.0     -0.0127537
"Line.LN6376200-2"            0.01079,     0.02     -0.00678058
"Line.LN5926294-1"            0.00025,      0.0     -0.00874587
"Line.LN6108130-5"            0.00036,      0.0     -0.00848235
"Line.LN6077782-1"            0.80019,     0.11     0.245929
"Line.LN6286966-2"            0.00005,      0.0     -0.00533143
"Line.LN8979346-3"            0.00026,      0.0     -0.0389632
"Line.LN5562947-1"            0.01750,     0.02     0.00259983
"Line.LN81048107-2"           0.00692,     0.01     -0.0352658
"Line.LN5655838-1"            0.05495,     0.02     -0.0231584
"Line.LN6017297-1"            0.00476,     0.01     -0.00213257
"Line.LN5956456-1"            0.08763,     0.09     0.0179461
"Line.LN6108148-1"            0.00003,      0.0     -0.00936781
"Line.LN81048100-7"           0.00455,     0.00     -0.000605583
"Line.LN5928545-1"            0.00002,      0.0     -0.000352408
"Line.LN5624291-1"            0.09511,     0.04     0.0634391
"Line.LN6134417-2"            0.00004,      0.0     -0.00116178
"Line.LN5504713-3"            0.00164,     0.00     -0.00502456
"Line.LN5895784-1"            0.00261,     0.01     -0.00528873
"Line.LN5683858-2"            0.00141,     0.00     -0.0157052
"Line.LN5986937-1"            0.00092,     0.00     -0.00338606
"Line.LN6041764-1"            0.00001,      0.0     -0.00490696
"Line.LN6228396-1"            0.04833,     0.04     0.0149339
"Line.LN5896727-1"            0.00026,      0.0     -0.004318
...
"Line.LN4625713_SW"           0.01002,     0.00     0.00995527
"Line.LN5502543-2"            0.48175,     0.04     0.405945
"Line.LN5683824-1"            0.06486,     0.04     0.0273307
"Line.LN6259999-2"            0.00024,      0.0     -0.00361993
"Line.LN6349052-1"            0.00123,     0.01     -0.0444189
"Line.LN5926295-1"            0.00715,     0.02     -0.0153519
"Line.LN6381766-1"            0.02209,     0.02     0.00775545
"Line.LN5561439-2"            0.00900,     0.00     0.0155362
"Line.LN5502527-1"            0.00010,      0.0     -0.0152312
"Line.LN6290217-1"            0.01606,     0.01     -0.0481675
"Line.LN5593246-1"            0.00711,     0.01     -0.00216911
"Line.LN5956465-1"            0.00494,     0.02     -0.0314575
"Line.LN5835134-1"            0.00018,      0.0     -0.027939
"Line.LN5679695-1"            2.24007,     0.04     5.31858
"Line.LN6341781-2"            0.00002,      0.0     -0.00141908
"Line.LN6018336-1"            4.74084,     0.04     11.2019
"Line.LN5532749-3"            0.00014,      0.0     -0.00615842
"Line.LN5686244-1"            0.00017,      0.0     -0.000359666
"Line.LN6879074-1"            0.00002,      0.0     -0.003262
"Line.LN6106511-1"            3.86985,     0.18     1.2088
"Line.LN5679770-2"            0.00004,      0.0     -0.0047144
"Line.LN5993742-1"            0.00008,      0.0     -0.0113961
"Line.LN6259997-1"            0.00055,      0.0     -0.0069249
"Line.LN5682337-1"            0.00000,      0.0     -0.00106075
"Line.LN5653456-1"            0.00076,      0.0     -0.00159265
"Line.LN6196270-4"            0.00016,      0.0     -0.00398225
"Line.LN6290233-1"            0.03059,     0.01     -0.0152973
"Line.LN6991377-13"           0.02510,     0.02     0.0122156
"Line.LN6199556-1"            0.00017,      0.0     -0.0118751
"Line.LN5744323-1"            0.00477,     0.01     -0.00542314
"Line.LN5745347-1"            0.32842,     0.01     0.735255
"Line.LN6047561-1"            3.50239,     0.30     1.22834
"Line.LN6411389-1"            0.00502,     0.00     0.00161077
"Line.LN5774453-1"            2.51390,     0.21     0.879836
"Line.LN5926303-1"            0.01162,     0.02     -0.0066576
"Line.LN5770318-1"            0.02821,     0.00     0.00895378
"Line.LN5958702-3"            0.00228,     0.01     -0.0102443
"Line.LN5804806-1"            0.01895,     0.02     0.00495124
"Line.LN5561521-1"            0.00595,     0.02     -0.016492
"Line.LN6199521-1"            0.00009,      0.0     -0.00944433
"Line.LN6290240-2"            0.00000,      0.0     -0.0413396
"Line.LN81018877-1"           0.00016,      0.0     -0.017959
"Line.LN5860423-1"            2.38854,     0.05     2.24611
"Line.LN7064338-3"            0.00023,      0.0     -0.00634723
"Line.LN6077801-1"            0.00776,     0.02     -0.0117872
"Line.LN5653489-1"            0.00055,      0.0     -0.0321275
"Line.LN6199515-1"            0.00081,      0.0     -0.00200999
"Line.LN6380819-1"            0.00997,     0.02     -0.00385355
"Line.LN4641075_SW"           0.16762,     0.00     0.167545
"Line.LN5860423-3"            0.70157,     0.01     0.657128
"Line.LN5622467-4"            0.06361,     0.02     -0.0409533
"Line.LN81043320-3"           0.03141,     0.03     -0.0791326
"Line.LN6290213-1"            0.00071,      0.0     -0.00732865
"Line.LN6140774-2"            0.00045,      0.0     -0.00797311
"Line.LN5500984-4"            0.00156,     0.00     0.000484288
"Line.LN6412366-1"            0.00047,      0.0     -0.00847222
"Line.LN6383058-1"            0.00002,      0.0     -0.000683037
"Line.LN5649361-2"            0.00012,      0.0     -0.00733617
"Line.LN5562930-1"            0.00009,      0.0     -0.0120042
"Line.LN5863825-1"            0.00042,      0.0     -0.0159561
"Line.LN6290212-1"            3.72741,     0.20     1.16023
"Line.LN5714046-1"            0.00028,      0.0     -0.0152007
"Line.LN5682448-2"            0.00001,      0.0     -0.00159421
"Line.LN6229832-2"            0.00006,      0.0     -0.00921171
"Line.LN5843536-1"            0.06936,     0.01     0.0246878
"Line.LN5715018-1"            0.00013,      0.0     -0.00500557
"Line.L5491_48332_SW"         0.00003,      0.0     3.16409E-006
"Line.LN5655682-1"            0.00019,      0.0     -0.000473887
"Line.LN4625696_SW"           0.00441,     0.00     0.00434331
"Line.LN5926308-3"            0.23656,     0.03     0.065254
"Line.LN6290206-1"            0.00017,      0.0     -0.00899891
"Line.LN5562929-1"            0.00016,      0.0     -0.00568666
"Line.LN5803293-2"            0.00294,     0.01     -0.00546589
"Line.LN5745355-1"            3.95970,     0.04     9.35607
"Line.LN6017285-1"            0.00182,     0.01     -0.0239395
"Line.LN6201698-2"            0.00001,      0.0     -0.000603287
"Line.LN5501003-1"            0.00036,      0.0     -0.0087849
"Line.LN5924720-1"            0.00002,      0.0     -0.00384027
"Line.LN6255845-1"            0.00046,      0.0     -0.000698856
"Line.LN5956501-1"            0.00013,      0.0     -0.00729915
"Line.LN6077772-1"            0.00243,     0.01     -0.00772355
"Line.LN6225673-1"            0.00009,      0.0     -0.00123825
"Line.LN5561432-1"            0.01972,     0.02     0.00441286
"Line.LN4586093_SW"           0.02482,     0.00     0.0247595
"Line.LN6138608-3"            3.27587,     0.18     1.02041
"Line.LN6138618-1"            0.00039,      0.0     -0.0143808
"Line.LN5562921-1"            0.13300,     0.07     0.0609767
"Line.LN5895807-1"            0.00003,      0.0     -0.0152572
"Line.LN5502540-1"            0.09311,     0.04     0.045334
"Line.LN6411375-1"            0.00020,      0.0     -0.00696736
"Line.LN6047573-2"            0.06293,     0.05     0.022244
"Line.LN5741249-1"            0.00060,      0.0     -0.000161047
"Line.LN5698090-3"            0.00002,      0.0     -0.000488547
"Line.LN5989332-1"            0.00194,     0.01     -0.00591093
"Line.LN5927423-1"            0.01784,     0.02     -0.0735414
"Line.LN5895803-1"            0.00306,     0.01     -0.010131
"Line.LN6260001-1"            0.00005,      0.0     -0.0156822
"Line.LN6229791-1"            0.00072,      0.0     -0.00617871
"Line.LN6409775-2"            0.00533,     0.01     -0.00352858
"Line.LN5714042-1"            0.00018,      0.0     -0.00956254
"Line.LN6411005-1"            0.12261,     0.03     0.0287738
"Line.LN5532788-2"            0.00001,      0.0     -0.00145302
"Line.LN5744325-1"            0.00021,      0.0     -0.00785691
"Line.LN6320332-1"            0.23579,     0.14     0.101663
"Line.LN6991378-5"            0.00030,      0.0     -0.00925429
"Line.LN5863704-3"            0.90641,     0.03     0.852187
"Line.LN6318745-3"            0.01654,     0.01     0.00616374
"Line.LN6413700-1"            3.79705,     0.05     9.0599
"Line.LN6409778-1"            0.10052,     0.04     -0.0475602
"Line.LN6381854-1"            0.00124,     0.01     -0.015025
"Line.LN6138608-2"            0.17610,     0.01     0.0548571
"Line.LN5744370-2"            0.00011,      0.0     -0.00592512
"Line.LN6290240-3"            0.00000,      0.0     -0.0264594
"Line.LN8979358-1"            0.00247,     0.01     -0.0297592
"Line.LN5927383-1"            0.00132,     0.00     -0.0486044
"Line.L5659_48332_SW"         0.00084,      0.0     0.000820965
"Line.LN6231996-1"            0.03484,     0.02     0.0163267
"Line.LN5533797-1"            0.00030,      0.0     -0.0492368
"Line.LN6047582-1"            0.00012,      0.0     -0.0126633
"Line.LN6409775-4"            0.00818,     0.01     -0.00373137
"Line.LN5926290-1"            0.00096,     0.01     -0.0228716
"Line.LN6381820-1"            7.33121,     0.10     17.4732
"Line.LN6103662-1"            0.00326,     0.01     -0.00900404
"Line.LN6262430-1"            0.00005,      0.0     -0.000630501
"Line.LN5742813-1"            0.00046,      0.0     -0.00741998
"Line.LN6199527-1"            0.61435,     0.07     0.1745
"Line.LN5986925-2"            0.00052,      0.0     -0.00688757
"Line.LN5742811-1"            0.28746,     0.02     0.247399
"Line.LN5926284-3"            0.00345,     0.01     -0.00376473
"Line.LN6413954-1"            3.69405,     0.05     8.77731
"Line.LN6411366-1"            0.03230,     0.05     -0.0183447
"Line.LN6412354-1"            1.07201,     0.01     2.53299
"Line.LN5895789-2"            0.51487,     0.08     0.153538
"Line.LN6383060-2"            0.01633,     0.01     0.00793546
"Line.LN6259984-1"            3.74791,     0.06     8.89786
"Line.LN5591814-1"            0.34500,     0.09     0.180641
"Line.LN5502531-1"            1.48860,     0.08     0.463307
"Line.LN5863746-1"            0.00000,      0.0     -0.00108287
"Line.LN5956499-3"            0.13557,     0.02     0.109464
"Line.LN5769126-1"            1.76769,     0.03     4.20166
"Line.LN3693186_SW"           0.38090,     0.01     0.380838
"Line.LN5861005-2"            0.37642,     0.01     0.894394
"Line.LN5714043-1"            0.00014,      0.0     -0.00183658
"Line.LN5835138-1"            0.00010,      0.0     -0.0107567
"Line.LN6411383-1"            0.88950,     0.06     0.81189
"Line.LN81048100-2"           0.04685,     0.03     -0.0200944
"Line.LN6019479-1"            0.00405,     0.00     0.00131231
"Line.LN5714044-1"            0.00001,      0.0     -0.00205277
"Line.LN6260000-1"            0.08442,     0.04     0.0403507
"Line.LN5985347-1"            0.00302,     0.01     -0.0103928
"Line.LN6348967-1"            0.00000,      0.0     -0.00344014
"Line.LN5833611-1"            0.00545,     0.02     -0.0168364
"Line.LN5593251-1"            0.29155,     0.03     0.24384
"Line.LN5837358-1"            0.00031,      0.0     -0.000408861
"Line.LN5894218-1"            0.00702,     0.02     -0.0144214
"Line.LN6195132-1"            0.00038,      0.0     -0.00104021
"Line.LN6229829-2"            0.05477,     0.01     0.0467861
"Line.LN6380825-1"            0.02165,     0.02     0.00198904
"Line.LN5624375-1"            0.00014,      0.0     -0.0155434
"Line.LN5533710-1"            0.00005,      0.0     -0.00276155
"Line.LN6196270-2"            0.00031,      0.0     -0.0202477
"Line.LN5653464-1"            0.00007,      0.0     -0.00216437
"Line.LN5986919-1"            0.00342,     0.01     -0.00542418
"Line.LN5807086-1"            0.00003,      0.0     -0.00814097
"Line.LN5805676-2"            0.00001,      0.0     -0.000760152
"Line.LN6108170-1"            0.00815,     0.00     0.00375269
"Line.LN6292466-1"            0.00002,      0.0     -0.00116524
"Line.LN5472394-1"            0.00042,      0.0     -0.000172522
"Line.LN6017328-1"            0.00385,     0.01     -0.0148757
"Line.LN5957493-1"            0.73569,     0.03     1.64619
"Line.LN5623403-1"            4.01836,     0.19     1.25817
"Line.LN6320333-1"            0.09259,     0.05     0.0434114
"Line.LN5865241-1"            0.07191,     0.03     0.034496
"Line.LN6259998-3"            0.00005,      0.0     -0.00206278
"Line.LN6046058-1"            0.00108,     0.00     -0.00690135
"Line.LN6229788-1"            0.00002,      0.0     -0.000432309
"Line.LN6896673-7"            0.00003,      0.0     -0.00340724
"Line.LN6169257-1"            1.43179,     0.09     1.30709
"Line.LN5682375-1"            0.00531,     0.01     -0.00505543
"Line.LN6106584-1"            0.00203,     0.01     -0.00840812
"Line.LN5472403-3"            0.06789,     0.03     -0.028139
"Line.LN6137009-2"            0.76261,     0.01     1.81564
"Line.LN5502536-2"            0.00023,      0.0     -0.00116884
"Line.LN5926304-1"            0.01482,     0.02     -0.00571343
"Line.LN5806921-1"            0.00009,      0.0     -0.000925504
"Line.LN6108146-1"            0.00036,      0.0     -0.0046615
"Line.LN5803267-1"            0.00114,     0.01     -0.0182257
"Line.LN5486729-1"            0.00000,      0.0     -0.000363322
"Line.LN5835142-1"            0.01041,     0.01     -0.000317986
"Line.LN5683842-1"            0.00006,      0.0     -0.000327963
"Line.LN6047598-1"            0.00004,      0.0     -0.00841241
"Line.V7313_48332_SW"         0.00003,      0.0     3.44577E-006
"Line.LN5806920-1"            0.00013,      0.0     -0.000490567
"Line.LN5987955-2"            0.00086,      0.0     -0.00685976
"Line.LN5744371-1"            0.00032,      0.0     -0.00632687
"Line.LN6352702-1"            0.00060,      0.0     -0.000857481
"Line.LN5835151-1"            0.00147,     0.01     -0.013416
"Line.LN5894212-2"            0.00086,      0.0     -0.0644543
"Line.LN5774458-1"            0.19216,     0.03     0.034136
"Line.LN5895771-2"            0.00002,      0.0     -0.00335086
"Line.LN5837355-1"            0.06454,     0.03     0.0307769
"Line.LN6015811-1"            0.00039,      0.0     -0.0109755
"Line.LN81048106-1"           0.00998,     0.01     -0.0138226
"Line.LN5804835-1"            0.00125,     0.00     -0.00936667
"Line.LN5805676-3"            0.00011,      0.0     -0.00585802
"Line.LN6043468-3"            0.00034,      0.0     -0.00330321
"Line.LN6047566-1"            0.09414,     0.02     0.000759782
"Line.LN6381855-1"            0.00009,      0.0     -0.0101188
"Line.LN5943422-3"            0.00200,     0.00     -0.00187954
"Line.LN81048088-1"           0.00228,     0.00     -0.00195039
"Line.LN5683827-2"            0.00002,      0.0     -0.0011446
"Line.LN5532782-1"            0.02527,     0.02     0.0108282
"Line.LN6106580-1"            0.00552,     0.01     -0.00829845
"Line.LN5562946-1"            0.00034,      0.0     -0.00475043
"Line.LN5920279-2"            0.59890,     0.01     1.42428
"Line.LN5621886-1"            0.14292,     0.09     -0.0783992
"Line.LN6290209-1"            1.14526,     0.22     0.158085
"Line.LN5863714-2"            0.26595,     0.00     0.632332
"Line.LN6106583-4"            0.00069,      0.0     -0.00053313
"Line.LN6015794-1"            0.00016,      0.0     -0.00772773
"Line.LN81048103-2"           0.02656,     0.03     -0.0552472
"Line.LN6078689-1"            0.00022,      0.0     -0.00320378
"Line.LN5683805-1"            0.00037,      0.0     -0.0200958
"Line.LN6199558-1"            0.23891,     0.10     0.116588
"Line.LN6286109-1"            0.75036,     0.01     1.78694
"Line.LN6350556-3"            3.57180,     0.07     3.39021
"Line.LN5625548-1"            0.00016,      0.0     -0.0010256
"Line.LN6199546-1"            0.00024,      0.0     -0.00330095
...